<?xml version="1.0" encoding="UTF-8"?>

<!-- generated on 2025-04-29 12:14:18 by Eclipse SUMO GUI Version 1.22.0
-->

<sumoConfiguration xmlns:xsi="http://www.w3.org/2001/XMLSchema-instance" xsi:noNamespaceSchemaLocation="http://sumo.dlr.de/xsd/sumoConfiguration.xsd">

    <input>
        <net-file value="net.net.xml"/>
        <route-files value="routes.rou.xml"/>
    </input>

</sumoConfiguration>
