<?xml version="1.0" encoding="UTF-8"?>

<!-- generated on 2025-04-29 09:59:22 by Eclipse SUMO netedit Version 1.11.0
<configuration xmlns:xsi="http://www.w3.org/2001/XMLSchema-instance" xsi:noNamespaceSchemaLocation="http://sumo.dlr.de/xsd/netconvertConfiguration.xsd">

    <output>
        <output-file value="/app/daniel.net.xml"/>
    </output>

    <processing>
        <offset.disable-normalization value="true"/>
    </processing>

    <junctions>
        <no-turnarounds value="true"/>
    </junctions>

    <report>
        <aggregate-warnings value="5"/>
    </report>

</configuration>
-->

<net version="1.9" junctionCornerDetail="5" limitTurnSpeed="5.50" xmlns:xsi="http://www.w3.org/2001/XMLSchema-instance" xsi:noNamespaceSchemaLocation="http://sumo.dlr.de/xsd/net_file.xsd">

    <location netOffset="0.00,0.00" convBoundary="13.95,35.17,66.42,76.16" origBoundary="10000000000.00,10000000000.00,-10000000000.00,-10000000000.00" projParameter="!"/>

    <edge id=":J3_0" function="internal">
        <lane id=":J3_0_0" index="0" speed="8.96" length="18.35" shape="20.48,80.84 15.49,80.11 11.97,77.95 9.91,74.37 9.32,69.36"/>
        <lane id=":J3_0_1" index="1" speed="7.65" length="13.11" shape="20.49,77.64 16.93,77.11 14.41,75.57 12.94,73.02 12.52,69.44"/>
    </edge>
    <edge id=":J3_2" function="internal">
        <lane id=":J3_2_0" index="0" speed="3.90" length="2.62" shape="18.91,69.60 19.00,70.31 19.29,70.82 19.80,71.13 20.51,71.24"/>
        <lane id=":J3_2_1" index="1" speed="6.07" length="7.87" shape="15.72,69.52 15.97,71.66 16.85,73.20 18.36,74.12 20.50,74.44"/>
    </edge>
    <edge id=":J4_0" function="internal">
        <lane id=":J4_0_0" index="0" speed="8.96" length="18.10" shape="71.22,69.75 70.52,74.66 68.42,78.16 64.91,80.26 59.99,80.95"/>
        <lane id=":J4_0_1" index="1" speed="7.66" length="12.93" shape="68.02,69.75 67.52,73.25 66.02,75.76 63.51,77.25 60.00,77.75"/>
    </edge>
    <edge id=":J4_2" function="internal">
        <lane id=":J4_2_0" index="0" speed="3.90" length="2.59" shape="60.02,71.35 60.72,71.25 61.22,70.95 61.52,70.45 61.62,69.75"/>
        <lane id=":J4_2_1" index="1" speed="6.08" length="7.76" shape="60.01,74.55 62.12,74.25 63.62,73.35 64.52,71.85 64.82,69.75"/>
    </edge>
    <edge id=":J5_0" function="internal">
        <lane id=":J5_0_0" index="0" speed="3.90" length="2.58" shape="61.62,41.57 61.52,40.87 61.22,40.37 60.72,40.07 60.02,39.97"/>
        <lane id=":J5_0_1" index="1" speed="6.08" length="7.74" shape="64.82,41.57 64.52,39.47 63.62,37.97 62.12,37.07 60.02,36.77"/>
    </edge>
    <edge id=":J5_2" function="internal">
        <lane id=":J5_2_0" index="0" speed="8.96" length="18.06" shape="60.02,30.37 64.92,31.07 68.42,33.17 70.52,36.67 71.22,41.57"/>
        <lane id=":J5_2_1" index="1" speed="7.66" length="12.90" shape="60.02,33.57 63.52,34.07 66.02,35.57 67.52,38.07 68.02,41.57"/>
    </edge>
    <edge id=":J6_0" function="internal">
        <lane id=":J6_0_0" index="0" speed="3.91" length="2.53" shape="21.21,39.97 20.53,40.07 20.03,40.36 19.73,40.85 19.61,41.53"/>
        <lane id=":J6_0_1" index="1" speed="6.08" length="7.60" shape="21.21,36.77 19.16,37.07 17.67,37.94 16.76,39.41 16.41,41.45"/>
    </edge>
    <edge id=":J6_2" function="internal">
        <lane id=":J6_2_0" index="0" speed="8.97" length="17.74" shape="10.02,41.30 10.82,36.52 12.95,33.10 16.42,31.06 21.21,30.37"/>
        <lane id=":J6_2_1" index="1" speed="7.66" length="12.67" shape="13.22,41.38 13.79,37.96 15.31,35.52 17.79,34.06 21.21,33.57"/>
    </edge>
    <edge id=":cluster_J10_J11_J12_0" function="internal">
        <lane id=":cluster_J10_J11_J12_0_0" index="0" speed="13.89" length="14.40" shape="46.77,80.91 32.37,80.87"/>
        <lane id=":cluster_J10_J11_J12_0_1" index="1" speed="13.89" length="14.40" shape="46.78,77.71 32.38,77.67"/>
    </edge>
    <edge id=":cluster_J10_J11_J12_2" function="internal">
        <lane id=":cluster_J10_J11_J12_2_0" index="0" speed="8.64" length="5.31" shape="46.78,77.71 42.88,76.94 41.85,76.10"/>
    </edge>
    <edge id=":cluster_J10_J11_J12_8" function="internal">
        <lane id=":cluster_J10_J11_J12_8_0" index="0" speed="8.64" length="11.66" shape="41.85,76.10 40.13,74.67 38.53,70.88 38.10,65.59"/>
    </edge>
    <edge id=":cluster_J10_J11_J12_3" function="internal">
        <lane id=":cluster_J10_J11_J12_3_0" index="0" speed="6.46" length="9.03" shape="41.30,65.66 41.59,68.13 42.61,69.89 44.34,70.95 46.80,71.31"/>
    </edge>
    <edge id=":cluster_J10_J11_J12_4" function="internal">
        <lane id=":cluster_J10_J11_J12_4_0" index="0" speed="8.74" length="16.85" shape="41.30,65.66 40.63,70.92 38.93,74.68 36.17,76.93 32.38,77.67"/>
    </edge>
    <edge id=":cluster_J10_J11_J12_5" function="internal">
        <lane id=":cluster_J10_J11_J12_5_0" index="0" speed="6.59" length="9.14" shape="32.40,71.27 34.84,70.92 36.61,69.86 37.69,68.08 38.10,65.59"/>
    </edge>
    <edge id=":cluster_J10_J11_J12_6" function="internal">
        <lane id=":cluster_J10_J11_J12_6_0" index="0" speed="13.89" length="14.40" shape="32.40,71.27 46.80,71.31"/>
        <lane id=":cluster_J10_J11_J12_6_1" index="1" speed="13.89" length="14.40" shape="32.39,74.47 46.79,74.51"/>
    </edge>
    <edge id=":cluster_J13_J14_J15_0" function="internal">
        <lane id=":cluster_J13_J14_J15_0_0" index="0" speed="6.60" length="9.15" shape="47.46,39.97 45.02,40.33 43.26,41.40 42.17,43.19 41.77,45.69"/>
    </edge>
    <edge id=":cluster_J13_J14_J15_1" function="internal">
        <lane id=":cluster_J13_J14_J15_1_0" index="0" speed="13.89" length="14.40" shape="47.46,39.97 33.06,39.97"/>
        <lane id=":cluster_J13_J14_J15_1_1" index="1" speed="13.89" length="14.40" shape="47.46,36.77 33.06,36.77"/>
    </edge>
    <edge id=":cluster_J13_J14_J15_3" function="internal">
        <lane id=":cluster_J13_J14_J15_3_0" index="0" speed="13.89" length="14.40" shape="33.06,30.37 47.46,30.37"/>
        <lane id=":cluster_J13_J14_J15_3_1" index="1" speed="13.89" length="14.40" shape="33.06,33.57 47.46,33.57"/>
    </edge>
    <edge id=":cluster_J13_J14_J15_5" function="internal">
        <lane id=":cluster_J13_J14_J15_5_0" index="0" speed="8.63" length="5.31" shape="33.06,33.57 36.98,34.33 38.00,35.17"/>
    </edge>
    <edge id=":cluster_J13_J14_J15_8" function="internal">
        <lane id=":cluster_J13_J14_J15_8_0" index="0" speed="8.63" length="11.67" shape="38.00,35.17 39.73,36.60 41.33,40.39 41.77,45.69"/>
    </edge>
    <edge id=":cluster_J13_J14_J15_6" function="internal">
        <lane id=":cluster_J13_J14_J15_6_0" index="0" speed="6.46" length="9.03" shape="38.57,45.61 38.27,43.14 37.26,41.38 35.52,40.33 33.06,39.97"/>
    </edge>
    <edge id=":cluster_J13_J14_J15_7" function="internal">
        <lane id=":cluster_J13_J14_J15_7_0" index="0" speed="8.75" length="16.85" shape="38.57,45.61 39.23,40.34 40.93,36.58 43.68,34.33 47.46,33.57"/>
    </edge>

    <edge id="-E3" from="J4" to="cluster_J10_J11_J12" priority="-1" shape="66.42,76.16 39.29,76.09">
        <lane id="-E3_0" index="0" speed="13.89" length="13.22" shape="59.99,80.95 46.77,80.91"/>
        <lane id="-E3_1" index="1" speed="13.89" length="13.22" shape="60.00,77.75 46.78,77.71"/>
    </edge>
    <edge id="-E3.27" from="cluster_J10_J11_J12" to="J3" priority="-1" shape="39.29,76.09 13.95,76.02">
        <lane id="-E3.27_0" index="0" speed="13.89" length="11.89" shape="32.37,80.87 20.48,80.84"/>
        <lane id="-E3.27_1" index="1" speed="13.89" length="11.89" shape="32.38,77.67 20.49,77.64"/>
    </edge>
    <edge id="-E4" from="J5" to="J4" priority="-1">
        <lane id="-E4_0" index="0" speed="13.89" length="28.17" shape="71.22,41.57 71.22,69.75"/>
        <lane id="-E4_1" index="1" speed="13.89" length="28.17" shape="68.02,41.57 68.02,69.75"/>
    </edge>
    <edge id="-E5" from="J6" to="cluster_J13_J14_J15" priority="-1" shape="14.97,35.17 39.78,35.17">
        <lane id="-E5_0" index="0" speed="13.89" length="11.85" shape="21.21,30.37 33.06,30.37"/>
        <lane id="-E5_1" index="1" speed="13.89" length="11.85" shape="21.21,33.57 33.06,33.57"/>
    </edge>
    <edge id="-E5.24" from="cluster_J13_J14_J15" to="J5" priority="-1" shape="39.78,35.17 66.42,35.17">
        <lane id="-E5.24_0" index="0" speed="13.89" length="12.56" shape="47.46,30.37 60.02,30.37"/>
        <lane id="-E5.24_1" index="1" speed="13.89" length="12.56" shape="47.46,33.57 60.02,33.57"/>
    </edge>
    <edge id="-E6" from="J3" to="J6" priority="-1">
        <lane id="-E6_0" index="0" speed="13.89" length="28.07" shape="9.32,69.36 10.02,41.30"/>
        <lane id="-E6_1" index="1" speed="13.89" length="28.07" shape="12.52,69.44 13.22,41.38"/>
    </edge>
    <edge id="-E7" from="cluster_J13_J14_J15" to="cluster_J10_J11_J12" priority="-1" shape="40.19,44.53 39.68,66.25">
        <lane id="-E7_0" index="0" speed="13.89" length="19.98" shape="41.77,45.69 41.30,65.66"/>
    </edge>
    <edge id="E3" from="J3" to="cluster_J10_J11_J12" priority="-1" shape="13.95,76.02 39.65,76.09">
        <lane id="E3_0" index="0" speed="13.89" length="11.89" shape="20.51,71.24 32.40,71.27"/>
        <lane id="E3_1" index="1" speed="13.89" length="11.89" shape="20.50,74.44 32.39,74.47"/>
    </edge>
    <edge id="E3.25" from="cluster_J10_J11_J12" to="J4" priority="-1" shape="39.65,76.09 66.42,76.16">
        <lane id="E3.25_0" index="0" speed="13.89" length="13.22" shape="46.80,71.31 60.02,71.35"/>
        <lane id="E3.25_1" index="1" speed="13.89" length="13.22" shape="46.79,74.51 60.01,74.55"/>
    </edge>
    <edge id="E4" from="J4" to="J5" priority="-1">
        <lane id="E4_0" index="0" speed="13.89" length="28.17" shape="61.62,69.75 61.62,41.57"/>
        <lane id="E4_1" index="1" speed="13.89" length="28.17" shape="64.82,69.75 64.82,41.57"/>
    </edge>
    <edge id="E5" from="J5" to="cluster_J13_J14_J15" priority="-1" shape="66.42,35.17 40.50,35.17">
        <lane id="E5_0" index="0" speed="13.89" length="12.56" shape="60.02,39.97 47.46,39.97"/>
        <lane id="E5_1" index="1" speed="13.89" length="12.56" shape="60.02,36.77 47.46,36.77"/>
    </edge>
    <edge id="E5.25" from="cluster_J13_J14_J15" to="J6" priority="-1" shape="40.50,35.17 14.97,35.17">
        <lane id="E5.25_0" index="0" speed="13.89" length="11.85" shape="33.06,39.97 21.21,39.97"/>
        <lane id="E5.25_1" index="1" speed="13.89" length="11.85" shape="33.06,36.77 21.21,36.77"/>
    </edge>
    <edge id="E6" from="J6" to="J3" priority="-1">
        <lane id="E6_0" index="0" speed="13.89" length="28.07" shape="19.61,41.53 18.91,69.60"/>
        <lane id="E6_1" index="1" speed="13.89" length="28.07" shape="16.41,41.45 15.72,69.52"/>
    </edge>
    <edge id="E7" from="cluster_J10_J11_J12" to="cluster_J13_J14_J15" priority="-1" shape="39.68,66.25 40.19,44.53">
        <lane id="E7_0" index="0" speed="13.89" length="19.98" shape="38.10,65.59 38.57,45.61"/>
    </edge>

    <tlLogic id="cluster_J10_J11_J12" type="static" programID="0" offset="0">
        <phase duration="42" state="GGgrrGGG"/>
        <phase duration="3"  state="yyyrryyy"/>
        <phase duration="42" state="rrrGGGrr"/>
        <phase duration="3"  state="rrryyyrr"/>
    </tlLogic>
    <tlLogic id="cluster_J13_J14_J15" type="static" programID="0" offset="0">
        <phase duration="42" state="GGGGGgrr"/>
        <phase duration="3"  state="yyyyyyrr"/>
        <phase duration="42" state="GrrrrrGG"/>
        <phase duration="3"  state="yrrrrryy"/>
    </tlLogic>

    <junction id="J3" type="priority" x="13.95" y="76.02" incLanes="-E3.27_0 -E3.27_1 E6_0 E6_1" intLanes=":J3_0_0 :J3_0_1 :J3_2_0 :J3_2_1" shape="20.48,82.44 20.51,69.64 7.72,69.32 7.98,73.32 8.99,76.59 10.75,79.14 13.24,80.96 16.49,82.06">
        <request index="0" response="0000" foes="0000" cont="0"/>
        <request index="1" response="0000" foes="0000" cont="0"/>
        <request index="2" response="0000" foes="0000" cont="0"/>
        <request index="3" response="0000" foes="0000" cont="0"/>
    </junction>
    <junction id="J4" type="priority" x="66.42" y="76.16" incLanes="-E4_0 -E4_1 E3.25_0 E3.25_1" intLanes=":J4_0_0 :J4_0_1 :J4_2_0 :J4_2_1" shape="72.82,69.75 60.02,69.75 59.99,82.55 63.91,82.20 67.12,81.14 69.62,79.36 71.40,76.87 72.47,73.67">
        <request index="0" response="0000" foes="0000" cont="0"/>
        <request index="1" response="0000" foes="0000" cont="0"/>
        <request index="2" response="0000" foes="0000" cont="0"/>
        <request index="3" response="0000" foes="0000" cont="0"/>
    </junction>
    <junction id="J5" type="priority" x="66.42" y="35.17" incLanes="E4_0 E4_1 -E5.24_0 -E5.24_1" intLanes=":J5_0_0 :J5_0_1 :J5_2_0 :J5_2_1" shape="60.02,41.57 72.82,41.57 72.47,37.66 71.40,34.46 69.62,31.97 67.14,30.20 63.94,29.13 60.02,28.77">
        <request index="0" response="0000" foes="0000" cont="0"/>
        <request index="1" response="0000" foes="0000" cont="0"/>
        <request index="2" response="0000" foes="0000" cont="0"/>
        <request index="3" response="0000" foes="0000" cont="0"/>
    </junction>
    <junction id="J6" type="priority" x="14.97" y="35.17" incLanes="E5.25_0 E5.25_1 -E6_0 -E6_1" intLanes=":J6_0_0 :J6_0_1 :J6_2_0 :J6_2_1" shape="21.21,41.57 21.21,28.77 17.39,29.12 14.24,30.16 11.77,31.89 9.98,34.32 8.86,37.44 8.42,41.26">
        <request index="0" response="0000" foes="0000" cont="0"/>
        <request index="1" response="0000" foes="0000" cont="0"/>
        <request index="2" response="0000" foes="0000" cont="0"/>
        <request index="3" response="0000" foes="0000" cont="0"/>
    </junction>
    <junction id="cluster_J10_J11_J12" type="traffic_light" x="39.54" y="72.81" incLanes="-E3_0 -E3_1 -E7_0 E3_0 E3_1" intLanes=":cluster_J10_J11_J12_0_0 :cluster_J10_J11_J12_0_1 :cluster_J10_J11_J12_8_0 :cluster_J10_J11_J12_3_0 :cluster_J10_J11_J12_4_0 :cluster_J10_J11_J12_5_0 :cluster_J10_J11_J12_6_0 :cluster_J10_J11_J12_6_1" shape="46.77,82.51 46.80,69.71 44.59,69.26 43.83,68.70 43.29,67.92 42.98,66.92 42.90,65.70 36.50,65.55 36.00,67.84 35.43,68.65 34.63,69.22 33.63,69.56 32.40,69.67 32.37,82.47">
        <request index="0" response="00000000" foes="00010000" cont="0"/>
        <request index="1" response="00000000" foes="00010000" cont="0"/>
        <request index="2" response="11100000" foes="11110000" cont="1"/>
        <request index="3" response="11000000" foes="11000000" cont="0"/>
        <request index="4" response="11000111" foes="11000111" cont="0"/>
        <request index="5" response="00000000" foes="00000100" cont="0"/>
        <request index="6" response="00000000" foes="00011100" cont="0"/>
        <request index="7" response="00000000" foes="00011100" cont="0"/>
    </junction>
    <junction id="cluster_J13_J14_J15" type="traffic_light" x="40.16" y="38.29" incLanes="E5_0 E5_1 -E5_0 -E5_1 E7_0" intLanes=":cluster_J13_J14_J15_0_0 :cluster_J13_J14_J15_1_0 :cluster_J13_J14_J15_1_1 :cluster_J13_J14_J15_3_0 :cluster_J13_J14_J15_3_1 :cluster_J13_J14_J15_8_0 :cluster_J13_J14_J15_6_0 :cluster_J13_J14_J15_7_0" shape="47.46,41.57 47.46,28.77 33.06,28.77 33.06,41.57 35.27,42.02 36.04,42.57 36.57,43.35 36.88,44.35 36.97,45.57 43.37,45.72 43.86,43.42 44.44,42.61 45.23,42.04 46.24,41.69">
        <request index="0" response="00000000" foes="00100000" cont="0"/>
        <request index="1" response="00000000" foes="11100000" cont="0"/>
        <request index="2" response="00000000" foes="11100000" cont="0"/>
        <request index="3" response="00000000" foes="10000000" cont="0"/>
        <request index="4" response="00000000" foes="10000000" cont="0"/>
        <request index="5" response="00000111" foes="10000111" cont="1"/>
        <request index="6" response="00000110" foes="00000110" cont="0"/>
        <request index="7" response="00111110" foes="00111110" cont="0"/>
    </junction>

    <junction id=":cluster_J10_J11_J12_8_0" type="internal" x="41.85" y="76.10" incLanes=":cluster_J10_J11_J12_2_0 E3_0 E3_1" intLanes=":cluster_J10_J11_J12_4_0 :cluster_J10_J11_J12_5_0 :cluster_J10_J11_J12_6_0 :cluster_J10_J11_J12_6_1"/>
    <junction id=":cluster_J13_J14_J15_8_0" type="internal" x="38.00" y="35.17" incLanes=":cluster_J13_J14_J15_5_0 E5_0 E5_1" intLanes=":cluster_J13_J14_J15_0_0 :cluster_J13_J14_J15_1_0 :cluster_J13_J14_J15_1_1 :cluster_J13_J14_J15_7_0"/>

    <connection from="-E3" to="-E3.27" fromLane="0" toLane="0" via=":cluster_J10_J11_J12_0_0" tl="cluster_J10_J11_J12" linkIndex="0" dir="s" state="O"/>
    <connection from="-E3" to="-E3.27" fromLane="1" toLane="1" via=":cluster_J10_J11_J12_0_1" tl="cluster_J10_J11_J12" linkIndex="1" dir="s" state="O"/>
    <connection from="-E3" to="E7" fromLane="1" toLane="0" via=":cluster_J10_J11_J12_2_0" tl="cluster_J10_J11_J12" linkIndex="2" dir="l" state="o"/>
    <connection from="-E3.27" to="-E6" fromLane="0" toLane="0" via=":J3_0_0" dir="l" state="M"/>
    <connection from="-E3.27" to="-E6" fromLane="1" toLane="1" via=":J3_0_1" dir="l" state="M"/>
    <connection from="-E4" to="-E3" fromLane="0" toLane="0" via=":J4_0_0" dir="l" state="M"/>
    <connection from="-E4" to="-E3" fromLane="1" toLane="1" via=":J4_0_1" dir="l" state="M"/>
    <connection from="-E5" to="-E5.24" fromLane="0" toLane="0" via=":cluster_J13_J14_J15_3_0" tl="cluster_J13_J14_J15" linkIndex="3" dir="s" state="O"/>
    <connection from="-E5" to="-E5.24" fromLane="1" toLane="1" via=":cluster_J13_J14_J15_3_1" tl="cluster_J13_J14_J15" linkIndex="4" dir="s" state="O"/>
    <connection from="-E5" to="-E7" fromLane="1" toLane="0" via=":cluster_J13_J14_J15_5_0" tl="cluster_J13_J14_J15" linkIndex="5" dir="l" state="o"/>
    <connection from="-E5.24" to="-E4" fromLane="0" toLane="0" via=":J5_2_0" dir="l" state="M"/>
    <connection from="-E5.24" to="-E4" fromLane="1" toLane="1" via=":J5_2_1" dir="l" state="M"/>
    <connection from="-E6" to="-E5" fromLane="0" toLane="0" via=":J6_2_0" dir="l" state="M"/>
    <connection from="-E6" to="-E5" fromLane="1" toLane="1" via=":J6_2_1" dir="l" state="M"/>
    <connection from="-E7" to="E3.25" fromLane="0" toLane="0" via=":cluster_J10_J11_J12_3_0" tl="cluster_J10_J11_J12" linkIndex="3" dir="r" state="o"/>
    <connection from="-E7" to="-E3.27" fromLane="0" toLane="1" via=":cluster_J10_J11_J12_4_0" tl="cluster_J10_J11_J12" linkIndex="4" dir="l" state="o"/>
    <connection from="E3" to="E7" fromLane="0" toLane="0" via=":cluster_J10_J11_J12_5_0" tl="cluster_J10_J11_J12" linkIndex="5" dir="r" state="O"/>
    <connection from="E3" to="E3.25" fromLane="0" toLane="0" via=":cluster_J10_J11_J12_6_0" tl="cluster_J10_J11_J12" linkIndex="6" dir="s" state="O"/>
    <connection from="E3" to="E3.25" fromLane="1" toLane="1" via=":cluster_J10_J11_J12_6_1" tl="cluster_J10_J11_J12" linkIndex="7" dir="s" state="O"/>
    <connection from="E3.25" to="E4" fromLane="0" toLane="0" via=":J4_2_0" dir="r" state="M"/>
    <connection from="E3.25" to="E4" fromLane="1" toLane="1" via=":J4_2_1" dir="r" state="M"/>
    <connection from="E4" to="E5" fromLane="0" toLane="0" via=":J5_0_0" dir="r" state="M"/>
    <connection from="E4" to="E5" fromLane="1" toLane="1" via=":J5_0_1" dir="r" state="M"/>
    <connection from="E5" to="-E7" fromLane="0" toLane="0" via=":cluster_J13_J14_J15_0_0" tl="cluster_J13_J14_J15" linkIndex="0" dir="r" state="O"/>
    <connection from="E5" to="E5.25" fromLane="0" toLane="0" via=":cluster_J13_J14_J15_1_0" tl="cluster_J13_J14_J15" linkIndex="1" dir="s" state="O"/>
    <connection from="E5" to="E5.25" fromLane="1" toLane="1" via=":cluster_J13_J14_J15_1_1" tl="cluster_J13_J14_J15" linkIndex="2" dir="s" state="O"/>
    <connection from="E5.25" to="E6" fromLane="0" toLane="0" via=":J6_0_0" dir="r" state="M"/>
    <connection from="E5.25" to="E6" fromLane="1" toLane="1" via=":J6_0_1" dir="r" state="M"/>
    <connection from="E6" to="E3" fromLane="0" toLane="0" via=":J3_2_0" dir="r" state="M"/>
    <connection from="E6" to="E3" fromLane="1" toLane="1" via=":J3_2_1" dir="r" state="M"/>
    <connection from="E7" to="E5.25" fromLane="0" toLane="0" via=":cluster_J13_J14_J15_6_0" tl="cluster_J13_J14_J15" linkIndex="6" dir="r" state="o"/>
    <connection from="E7" to="-E5.24" fromLane="0" toLane="1" via=":cluster_J13_J14_J15_7_0" tl="cluster_J13_J14_J15" linkIndex="7" dir="l" state="o"/>

    <connection from=":J3_0" to="-E6" fromLane="0" toLane="0" dir="l" state="M"/>
    <connection from=":J3_0" to="-E6" fromLane="1" toLane="1" dir="l" state="M"/>
    <connection from=":J3_2" to="E3" fromLane="0" toLane="0" dir="r" state="M"/>
    <connection from=":J3_2" to="E3" fromLane="1" toLane="1" dir="r" state="M"/>
    <connection from=":J4_0" to="-E3" fromLane="0" toLane="0" dir="l" state="M"/>
    <connection from=":J4_0" to="-E3" fromLane="1" toLane="1" dir="l" state="M"/>
    <connection from=":J4_2" to="E4" fromLane="0" toLane="0" dir="r" state="M"/>
    <connection from=":J4_2" to="E4" fromLane="1" toLane="1" dir="r" state="M"/>
    <connection from=":J5_0" to="E5" fromLane="0" toLane="0" dir="r" state="M"/>
    <connection from=":J5_0" to="E5" fromLane="1" toLane="1" dir="r" state="M"/>
    <connection from=":J5_2" to="-E4" fromLane="0" toLane="0" dir="l" state="M"/>
    <connection from=":J5_2" to="-E4" fromLane="1" toLane="1" dir="l" state="M"/>
    <connection from=":J6_0" to="E6" fromLane="0" toLane="0" dir="r" state="M"/>
    <connection from=":J6_0" to="E6" fromLane="1" toLane="1" dir="r" state="M"/>
    <connection from=":J6_2" to="-E5" fromLane="0" toLane="0" dir="l" state="M"/>
    <connection from=":J6_2" to="-E5" fromLane="1" toLane="1" dir="l" state="M"/>
    <connection from=":cluster_J10_J11_J12_0" to="-E3.27" fromLane="0" toLane="0" dir="s" state="M"/>
    <connection from=":cluster_J10_J11_J12_0" to="-E3.27" fromLane="1" toLane="1" dir="s" state="M"/>
    <connection from=":cluster_J10_J11_J12_2" to="E7" fromLane="0" toLane="0" via=":cluster_J10_J11_J12_8_0" dir="l" state="m"/>
    <connection from=":cluster_J10_J11_J12_8" to="E7" fromLane="0" toLane="0" dir="l" state="M"/>
    <connection from=":cluster_J10_J11_J12_3" to="E3.25" fromLane="0" toLane="0" dir="r" state="M"/>
    <connection from=":cluster_J10_J11_J12_4" to="-E3.27" fromLane="0" toLane="1" dir="l" state="M"/>
    <connection from=":cluster_J10_J11_J12_5" to="E7" fromLane="0" toLane="0" dir="r" state="M"/>
    <connection from=":cluster_J10_J11_J12_6" to="E3.25" fromLane="0" toLane="0" dir="s" state="M"/>
    <connection from=":cluster_J10_J11_J12_6" to="E3.25" fromLane="1" toLane="1" dir="s" state="M"/>
    <connection from=":cluster_J13_J14_J15_0" to="-E7" fromLane="0" toLane="0" dir="r" state="M"/>
    <connection from=":cluster_J13_J14_J15_1" to="E5.25" fromLane="0" toLane="0" dir="s" state="M"/>
    <connection from=":cluster_J13_J14_J15_1" to="E5.25" fromLane="1" toLane="1" dir="s" state="M"/>
    <connection from=":cluster_J13_J14_J15_3" to="-E5.24" fromLane="0" toLane="0" dir="s" state="M"/>
    <connection from=":cluster_J13_J14_J15_3" to="-E5.24" fromLane="1" toLane="1" dir="s" state="M"/>
    <connection from=":cluster_J13_J14_J15_5" to="-E7" fromLane="0" toLane="0" via=":cluster_J13_J14_J15_8_0" dir="l" state="m"/>
    <connection from=":cluster_J13_J14_J15_8" to="-E7" fromLane="0" toLane="0" dir="l" state="M"/>
    <connection from=":cluster_J13_J14_J15_6" to="E5.25" fromLane="0" toLane="0" dir="r" state="M"/>
    <connection from=":cluster_J13_J14_J15_7" to="-E5.24" fromLane="0" toLane="1" dir="l" state="M"/>

</net>
