[General]
network = TestNetwork
sim-time-limit = 5s
cmdenv-express-mode = true
